@<TRIPOS>MOLECULE
/home/nanomd/Desktop/Sakthidhasan/md_pipeline/web_jobs/20260820-193119-93455e15/inputs/ligand.pdb
 77 78 0 0 0
SMALL
GASTEIGER

@<TRIPOS>ATOM
      1  O1        -0.4870    7.7620    5.4840 O.2   900  UNK900     -0.2738
      2  O2        -3.4940   10.3520    6.9170 O.2   900  UNK900     -0.2739
      3  O3         1.3900    5.0370    5.4630 O.2   900  UNK900     -0.2739
      4  O4        -0.8970    3.0680    0.8130 O.2   900  UNK900     -0.2738
      5  O5        -0.7230    1.5660    5.2990 O.co2 900  UNK900     -0.5479
      6  O6         0.3120   -0.3310    4.7740 O.co2 900  UNK900     -0.5479
      7  N7        -2.1150    8.7010    7.6030 N.am  900  UNK900     -0.2886
      8  N8         1.2510    4.8000    3.2230 N.am  900  UNK900     -0.2886
      9  N9        -1.3050    5.6620    5.8080 N.am  900  UNK900     -0.3052
     10  N10       -0.0760    2.4130    2.8220 N.am  900  UNK900     -0.3058
     11  N11       -4.5070    6.9840    6.4230 N.3   900  UNK900     -0.3197
     12  N12       -3.8090   -1.1390    5.2050 N.pl3 900  UNK900     -0.2787
     13  N13       -3.2880   -0.2870    7.3130 N.pl3 900  UNK900     -0.2919
     14  N14       -4.0900   -2.4580    7.0550 N.pl3 900  UNK900     -0.2919
     15  C15       -1.5810    7.3250    7.5880 C.3   900  UNK900      0.1022
     16  C16       -0.3380    7.3500    8.4980 C.3   900  UNK900     -0.0243
     17  C17        0.5440    4.6230    1.9380 C.3   900  UNK900      0.1023
     18  C18       -0.1060    8.8010    8.9170 C.3   900  UNK900     -0.0350
     19  C19       -1.2270    9.6310    8.2950 C.3   900  UNK900      0.0156
     20  C20        1.6450    4.6020    0.8560 C.3   900  UNK900     -0.0243
     21  C21        2.9370    5.0130    1.5370 C.3   900  UNK900     -0.0350
     22  C22        2.6920    4.9200    3.0360 C.3   900  UNK900      0.0156
     23  C23       -1.0980    6.9390    6.1770 C.2   900  UNK900      0.2340
     24  C24       -3.3270    9.1530    7.1810 C.2   900  UNK900      0.2333
     25  C25       -4.5900    8.2430    7.1870 C.3   900  UNK900      0.0848
     26  C26        0.6970    4.9500    4.4510 C.2   900  UNK900      0.2334
     27  C27       -0.2260    3.2870    1.8180 C.2   900  UNK900      0.2341
     28  C28       -0.8420    5.0510    4.5690 C.3   900  UNK900      0.0884
     29  C29       -5.1520    8.0800    8.6390 C.3   900  UNK900     -0.0230
     30  C30       -0.4830    1.0260    2.9860 C.3   900  UNK900      0.0627
     31  C31       -4.4440    7.0340    9.5240 C.3   900  UNK900     -0.0608
     32  C32       -6.6800    7.8760    8.7020 C.3   900  UNK900     -0.0608
     33  C33       -1.9110    0.7440    2.4450 C.3   900  UNK900     -0.0264
     34  C34       -2.7040   -0.3980    3.1190 C.3   900  UNK900     -0.0202
     35  C35       -0.2970    0.7210    4.4780 C.2   900  UNK900      0.0619
     36  C36       -3.5420    0.0180    4.3520 C.3   900  UNK900      0.0646
     37  C37       -3.7360   -1.2760    6.5290 C.cat 900  UNK900      0.3410
     38  H38       -2.3070    6.5950    7.9450 H     900  UNK900      0.0597
     39  H39       -0.5110    6.7160    9.3710 H     900  UNK900      0.0288
     40  H40        0.5650    6.9630    8.0140 H     900  UNK900      0.0288
     41  H41       -0.1240    5.4670    1.7580 H     900  UNK900      0.0597
     42  H42        0.8830    9.1790    8.6310 H     900  UNK900      0.0281
     43  H43       -0.1630    8.8710   10.0140 H     900  UNK900      0.0281
     44  H44       -0.8050   10.3450    7.5830 H     900  UNK900      0.0465
     45  H45       -1.7680   10.2040    9.0590 H     900  UNK900      0.0465
     46  H46        1.7990    3.6080    0.4320 H     900  UNK900      0.0288
     47  H47        1.3930    5.2620    0.0290 H     900  UNK900      0.0288
     48  H48        3.1160    6.0530    1.2760 H     900  UNK900      0.0281
     49  H49        3.8020    4.4290    1.2200 H     900  UNK900      0.0281
     50  H50        3.1030    5.7850    3.5570 H     900  UNK900      0.0465
     51  H51        3.1650    4.0280    3.4400 H     900  UNK900      0.0465
     52  H52       -5.3370    8.8350    6.6460 H     900  UNK900      0.0557
     53  H53       -1.2460    5.6340    3.7370 H     900  UNK900      0.0558
     54  H54       -1.2840    4.0600    4.5120 H     900  UNK900      0.0558
     55  H55       -4.9990    9.0470    9.1280 H     900  UNK900      0.0315
     56  H56       -1.7790    5.0390    6.4450 H     900  UNK900      0.1492
     57  H57        0.4580    2.7440    3.6140 H     900  UNK900      0.1494
     58  H58        0.2300    0.4160    2.4500 H     900  UNK900      0.0560
     59  H59       -4.4670    6.0430    9.0820 H     900  UNK900      0.0233
     60  H60       -3.4110    7.3090    9.7280 H     900  UNK900      0.0233
     61  H61       -4.9270    6.9520   10.4970 H     900  UNK900      0.0233
     62  H62       -6.9770    6.8660    8.4210 H     900  UNK900      0.0233
     63  H63       -7.0460    8.0320    9.7300 H     900  UNK900      0.0233
     64  H64       -7.1980    8.5820    8.0610 H     900  UNK900      0.0233
     65  H65       -4.4130    7.1220    5.4180 H     900  UNK900      0.1189
     66  H66       -3.7490    6.3790    6.7160 H     900  UNK900      0.1189
     67  H67       -1.8110    0.4800    1.3990 H     900  UNK900      0.0288
     68  H68       -2.4860    1.6570    2.4230 H     900  UNK900      0.0288
     69  H69       -2.0360   -1.2290    3.3530 H     900  UNK900      0.0296
     70  H70       -3.3950   -0.8030    2.3780 H     900  UNK900      0.0296
     71  H71       -4.4890    0.4430    4.0220 H     900  UNK900      0.0655
     72  H72       -3.0520    0.7880    4.9380 H     900  UNK900      0.0655
     73  H73       -3.2600   -0.3800    8.3190 H     900  UNK900      0.2545
     74  H74       -2.9300    0.5590    6.8890 H     900  UNK900      0.2545
     75  H75       -4.3990   -3.2060    6.4540 H     900  UNK900      0.2545
     76  H76       -3.9690   -2.6560    8.0370 H     900  UNK900      0.2545
     77  H77       -4.0390   -1.9790    4.6250 H     900  UNK900      0.2578
@<TRIPOS>UNITY_ATOM_ATTR
5 1
charge -1
14 1
charge 1
@<TRIPOS>BOND
     1    47    20    1
     2    46    20    1
     3     4    27    2
     4    20    21    1
     5    20    17    1
     6    49    21    1
     7    48    21    1
     8    67    33    1
     9    21    22    1
    10    41    17    1
    11    27    17    1
    12    27    10   am
    13    17     8    1
    14    70    34    1
    15    68    33    1
    16    33    30    1
    17    33    34    1
    18    58    30    1
    19    10    30    1
    20    10    57    1
    21    30    35    1
    22    22     8    1
    23    22    51    1
    24    22    50    1
    25    34    69    1
    26    34    36    1
    27     8    26   am
    28    53    28    1
    29    71    36    1
    30    36    72    1
    31    36    12    1
    32    26    28    1
    33    26     3    2
    34    35     6   ar
    35    35     5   ar
    36    54    28    1
    37    28     9    1
    38    77    12    1
    39    12    37    1
    40    65    11    1
    41     1    23    2
    42     9    23   am
    43     9    56    1
    44    23    15    1
    45    11    66    1
    46    11    25    1
    47    75    14    1
    48    37    14    2
    49    37    13    1
    50    52    25    1
    51    74    13    1
    52     2    24    2
    53    14    76    1
    54    24    25    1
    55    24     7   am
    56    25    29    1
    57    13    73    1
    58    44    19    1
    59    15     7    1
    60    15    38    1
    61    15    16    1
    62     7    19    1
    63    40    16    1
    64    64    32    1
    65    19    18    1
    66    19    45    1
    67    62    32    1
    68    16    18    1
    69    16    39    1
    70    42    18    1
    71    29    32    1
    72    29    55    1
    73    29    31    1
    74    32    63    1
    75    18    43    1
    76    59    31    1
    77    31    60    1
    78    31    61    1
